#======================================================================

# CRYSTAL DATA

#----------------------------------------------------------------------

data_VESTA_phase_1


_pd_phase_name                         'XCrySDen XSF file'
_cell_length_a                         6.35922
_cell_length_b                         3.85220
_cell_length_c                         3.85023
_cell_angle_alpha                      59.98169
_cell_angle_beta                       89.95023
_cell_angle_gamma                      89.99126
_symmetry_space_group_name_H-M         'P 1'
_symmetry_Int_Tables_number            1

loop_
_symmetry_equiv_pos_as_xyz
   'x, y, z'

loop_
   _atom_site_label
   _atom_site_occupancy
   _atom_site_fract_x
   _atom_site_fract_y
   _atom_site_fract_z
   _atom_site_adp_type
   _atom_site_B_iso_or_equiv
   _atom_site_type_symbol
   Si1        1.0    -0.065391      0.480597      0.728964     Biso  1.000000 Si
   Si2        1.0     0.434512      0.813797      0.062446     Biso  1.000000 Si
   Si3        1.0     0.060169      0.813961      1.061850     Biso  1.000000 Si
   Si4        1.0     0.560191      0.480554      0.729142     Biso  1.000000 Si

