#======================================================================

# CRYSTAL DATA

#----------------------------------------------------------------------

data_VESTA_phase_1


_pd_phase_name                         'XCrySDen XSF file'
_cell_length_a                         3.76705
_cell_length_b                         4.40802
_cell_length_c                         4.70643
_cell_angle_alpha                      114.22175
_cell_angle_beta                       56.67070
_cell_angle_gamma                      99.12924
_symmetry_space_group_name_H-M         'P 1'
_symmetry_Int_Tables_number            1

loop_
_symmetry_equiv_pos_as_xyz
   'x, y, z'

loop_
   _atom_site_label
   _atom_site_occupancy
   _atom_site_fract_x
   _atom_site_fract_y
   _atom_site_fract_z
   _atom_site_adp_type
   _atom_site_B_iso_or_equiv
   _atom_site_type_symbol
   B1         1.0     0.668474      0.280100      1.077449     Biso  1.000000 B
   B2         1.0     1.018577      0.578541      0.376138     Biso  1.000000 B
   C1         1.0     0.438516      0.078125      0.875418     Biso  1.000000 C
   C2         1.0     0.585514      0.780027      0.579847     Biso  1.000000 C
   N1         1.0     0.393952      0.584042      0.384083     Biso  1.000000 N
   N2         1.0     1.051518      0.274847      0.070391     Biso  1.000000 N
