#======================================================================

# CRYSTAL DATA

#----------------------------------------------------------------------

data_VESTA_phase_1


_pd_phase_name                         'XCrySDen XSF file'
_cell_length_a                         7.43437
_cell_length_b                         3.85146
_cell_length_c                         3.85156
_cell_angle_alpha                      120.01085
_cell_angle_beta                       74.99457
_cell_angle_gamma                      121.18295
_symmetry_space_group_name_H-M         'P 1'
_symmetry_Int_Tables_number            1

loop_
_symmetry_equiv_pos_as_xyz
   'x, y, z'

loop_
   _atom_site_label
   _atom_site_occupancy
   _atom_site_fract_x
   _atom_site_fract_y
   _atom_site_fract_z
   _atom_site_adp_type
   _atom_site_B_iso_or_equiv
   _atom_site_type_symbol
   Si1        1.0     0.626531     -0.038053      0.466193     Biso  1.000000 Si
   Si2        1.0     0.126725      0.793977      0.128345     Biso  1.000000 Si
   Si3        1.0     0.752414      0.420873      0.132891     Biso  1.000000 Si
   Si4        1.0     0.252146      0.586125      0.461760     Biso  1.000000 Si

